Case_Studies/Report/1000_data - Storage/case_ieee123_storage_979.m
function mpc = case_ieee123_storage_979
%CASE_IEEE123_STORAGE_979

%% MATPOWER Case Format : Version 2
mpc.version = '2';

%%-----  Power Flow Data  -----%%
%% system MVA base
mpc.baseMVA = 1;

%% bus data
%	bus_i	type	Pd	Qd	Gs	Bs	area	Vm	Va	baseKV	zone	Vmax	Vmin
mpc.bus = [
	1	3	-0.003707	-0.0018535	0	0	1	1	0	4.16	1	1.2	0.8;
	2	1	0.002048	0.001024	0	0	1	1	0	4.16	1	1.2	0.8;
	3	1	0.000238	0.000119	0	0	1	1	0	4.16	1	1.2	0.8;
	4	1	-0.00195	-0.000975	0	0	1	1	0	4.16	1	1.2	0.8;
	5	1	-0.002077	-0.0010385	0	0	1	1	0	4.16	1	1.2	0.8;
	6	1	1e-10	5e-11	0	0	1	1	0	4.16	1	1.2	0.8;
	7	1	1e-10	5e-11	0	0	1	1	0	4.16	1	1.2	0.8;
	8	1	-0.003276	-0.001638	0	0	1	1	0	4.16	1	1.2	0.8;
	9	1	-0.003384	-0.001692	0	0	1	1	0	4.16	1	1.2	0.8;
	10	1	-0.003252	-0.001626	0	0	1	1	0	4.16	1	1.2	0.8;
	11	1	0.001596	0.000798	0	0	1	1	0	4.16	1	1.2	0.8;
	12	1	-0.003456	-0.001728	0	0	1	1	0	4.16	1	1.2	0.8;
	13	1	-0.002796	-0.001398	0	0	1	1	0	4.16	1	1.2	0.8;
	14	1	1e-10	5e-11	0	0	1	1	0	4.16	1	1.2	0.8;
	15	1	-0.0034	-0.0017	0	0	1	1	0	4.16	1	1.2	0.8;
	16	1	-0.003684	-0.001842	0	0	1	1	0	4.16	1	1.2	0.8;
	17	1	-0.003117	-0.0015585	0	0	1	1	0	4.16	1	1.2	0.8;
	18	1	-0.002989	-0.0014945	0	0	1	1	0	4.16	1	1.2	0.8;
	19	1	-0.002623	-0.0013115	0	0	1	1	0	4.16	1	1.2	0.8;
	20	1	-0.002016	-0.001008	0	0	1	1	0	4.16	1	1.2	0.8;
	21	1	-0.003158	-0.001579	0	0	1	1	0	4.16	1	1.2	0.8;
	22	1	-0.002189	-0.0010945	0	0	1	1	0	4.16	1	1.2	0.8;
	23	1	-0.002683	-0.0013415	0	0	1	1	0	4.16	1	1.2	0.8;
	24	1	0.001391	0.0006955	0	0	1	1	0	4.16	1	1.2	0.8;
	25	1	-0.002031	-0.0010155	0	0	1	1	0	4.16	1	1.2	0.8;
	26	1	0.000301	0.0001505	0	0	1	1	0	4.16	1	1.2	0.8;
	27	1	-0.002138	-0.001069	0	0	1	1	0	4.16	1	1.2	0.8;
	28	1	-0.001308	-0.000654	0	0	1	1	0	4.16	1	1.2	0.8;
	29	1	-0.002726	-0.001363	0	0	1	1	0	4.16	1	1.2	0.8;
	30	1	-0.003472	-0.001736	0	0	1	1	0	4.16	1	1.2	0.8;
	31	1	-0.003239	-0.0016195	0	0	1	1	0	4.16	1	1.2	0.8;
	32	1	-0.002705	-0.0013525	0	0	1	1	0	4.16	1	1.2	0.8;
	33	1	-0.002036	-0.001018	0	0	1	1	0	4.16	1	1.2	0.8;
	34	1	-0.003921	-0.0019605	0	0	1	1	0	4.16	1	1.2	0.8;
	35	1	-0.002453	-0.0012265	0	0	1	1	0	4.16	1	1.2	0.8;
	36	1	-0.001621	-0.0008105	0	0	1	1	0	4.16	1	1.2	0.8;
	37	1	-0.002232	-0.001116	0	0	1	1	0	4.16	1	1.2	0.8;
	38	1	-0.003123	-0.0015615	0	0	1	1	0	4.16	1	1.2	0.8;
	39	1	-0.002994	-0.001497	0	0	1	1	0	4.16	1	1.2	0.8;
	40	1	-0.002368	-0.001184	0	0	1	1	0	4.16	1	1.2	0.8;
	41	1	-0.00411	-0.002055	0	0	1	1	0	4.16	1	1.2	0.8;
	42	1	-0.003587	-0.0017935	0	0	1	1	0	4.16	1	1.2	0.8;
	43	1	-0.003501	-0.0017505	0	0	1	1	0	4.16	1	1.2	0.8;
	44	1	-0.002364	-0.001182	0	0	1	1	0	4.16	1	1.2	0.8;
	45	1	1e-10	5e-11	0	0	1	1	0	4.16	1	1.2	0.8;
	46	1	0.002066	0.001033	0	0	1	1	0	4.16	1	1.2	0.8;
	47	1	1e-10	5e-11	0	0	1	1	0	4.16	1	1.2	0.8;
	48	1	1e-10	5e-11	0	0	1	1	0	4.16	1	1.2	0.8;
	49	1	0.00087	0.000435	0	0	1	1	0	4.16	1	1.2	0.8;
	50	1	-0.003165	-0.0015825	0	0	1	1	0	4.16	1	1.2	0.8;
	51	1	1e-10	5e-11	0	0	1	1	0	4.16	1	1.2	0.8;
	52	1	1e-10	5e-11	0	0	1	1	0	4.16	1	1.2	0.8;
	53	1	-0.002139	-0.0010695	0	0	1	1	0	4.16	1	1.2	0.8;
	54	1	1e-10	5e-11	0	0	1	1	0	4.16	1	1.2	0.8;
	55	1	1e-10	5e-11	0	0	1	1	0	4.16	1	1.2	0.8;
	56	1	-0.000326	-0.000163	0	0	1	1	0	4.16	1	1.2	0.8;
	57	1	1e-10	5e-11	0	0	1	1	0	4.16	1	1.2	0.8;
	58	1	1e-10	5e-11	0	0	1	1	0	4.16	1	1.2	0.8;
	59	1	0.000196	9.8e-05	0	0	1	1	0	4.16	1	1.2	0.8;
	60	1	-0.003759	-0.0018795	0	0	1	1	0	4.16	1	1.2	0.8;
];

%% generator data
%	bus	Pg	Qg	Qmax	Qmin	Vg	mBase	status	Pmax	Pmin	Pc1	Pc2	Qc1min	Qc1max	Qc2min	Qc2max	ramp_agc	ramp_10	ramp_30	ramp_q	apf
mpc.gen = [
	1	-0.102368999	0	200	-200	1	1	1	200	-200	0	0	0	0	0	0	10	0	0	0	0;
];

%% branch data
%	fbus	tbus	r	x	b	rateA	rateB	rateC	ratio	angle	status	angmin	angmax
mpc.branch = [
	1	2	0.0013398623	0.0027450827	3.02770272e-08	100	100	100	0	0	1	-80	80;
	1	2	0.0013398623	0.0027450827	3.02770272e-08	100	100	100	0	0	1	-80	80;
	2	3	0.0013398623	0.0027450827	3.02770272e-08	100	100	100	0	0	1	-80	80;
	3	4	0.0013398623	0.0027450827	3.02770272e-08	100	100	100	0	0	1	-80	80;
	4	5	0.0013398623	0.0027450827	3.02770272e-08	100	100	100	0	0	1	-80	80;
	5	6	0.0013398623	0.0027450827	3.02770272e-08	100	100	100	0	0	1	-80	80;
	6	7	0.0013398623	0.0027450827	3.02770272e-08	100	100	100	0	0	1	-80	80;
	7	8	0.0013398623	0.0027450827	3.02770272e-08	100	100	100	0	0	1	-80	80;
	8	9	0.0013398623	0.0027450827	3.02770272e-08	100	100	100	0	0	1	-80	80;
	9	10	0.0013398623	0.0027450827	3.02770272e-08	100	100	100	0	0	1	-80	80;
	10	11	0.0013398623	0.0027450827	3.02770272e-08	100	100	100	0	0	1	-80	80;
	11	12	0.0013398623	0.0027450827	3.02770272e-08	100	100	100	0	0	1	-80	80;
	12	13	0.0013398623	0.0027450827	3.02770272e-08	100	100	100	0	0	1	-80	80;
	13	14	0.0013398623	0.0027450827	3.02770272e-08	100	100	100	0	0	1	-80	80;
	14	15	0.0013398623	0.0027450827	3.02770272e-08	100	100	100	0	0	1	-80	80;
	15	16	0.0013398623	0.0027450827	3.02770272e-08	100	100	100	0	0	1	-80	80;
	16	17	0.0013398623	0.0027450827	3.02770272e-08	100	100	100	0	0	1	-80	80;
	17	18	0.0013398623	0.0027450827	3.02770272e-08	100	100	100	0	0	1	-80	80;
	18	19	0.0013398623	0.0027450827	3.02770272e-08	100	100	100	0	0	1	-80	80;
	19	20	0.0013398623	0.0027450827	3.02770272e-08	100	100	100	0	0	1	-80	80;
	20	21	0.0013398623	0.0027450827	3.02770272e-08	100	100	100	0	0	1	-80	80;
	21	22	0.0013398623	0.0027450827	3.02770272e-08	100	100	100	0	0	1	-80	80;
	22	23	0.0013398623	0.0027450827	3.02770272e-08	100	100	100	0	0	1	-80	80;
	23	24	0.0013398623	0.0027450827	3.02770272e-08	100	100	100	0	0	1	-80	80;
	24	25	0.0013398623	0.0027450827	3.02770272e-08	100	100	100	0	0	1	-80	80;
	25	26	0.0013398623	0.0027450827	3.02770272e-08	100	100	100	0	0	1	-80	80;
	26	27	0.0013398623	0.0027450827	3.02770272e-08	100	100	100	0	0	1	-80	80;
	27	28	0.0013398623	0.0027450827	3.02770272e-08	100	100	100	0	0	1	-80	80;
	28	29	0.0013398623	0.0027450827	3.02770272e-08	100	100	100	0	0	1	-80	80;
	1	30	0.0013398623	0.0027450827	3.02770272e-08	100	100	100	0	0	1	-80	80;
	30	31	0.0013398623	0.0027450827	3.02770272e-08	100	100	100	0	0	1	-80	80;
	31	32	0.0013398623	0.0027450827	3.02770272e-08	100	100	100	0	0	1	-80	80;
	32	33	0.0013398623	0.0027450827	3.02770272e-08	100	100	100	0	0	1	-80	80;
	33	34	0.0013398623	0.0027450827	3.02770272e-08	100	100	100	0	0	1	-80	80;
	34	35	0.0013398623	0.0027450827	3.02770272e-08	100	100	100	0	0	1	-80	80;
	35	36	0.0013398623	0.0027450827	3.02770272e-08	100	100	100	0	0	1	-80	80;
	36	37	0.0013398623	0.0027450827	3.02770272e-08	100	100	100	0	0	1	-80	80;
	37	38	0.0013398623	0.0027450827	3.02770272e-08	100	100	100	0	0	1	-80	80;
	38	39	0.0013398623	0.0027450827	3.02770272e-08	100	100	100	0	0	1	-80	80;
	39	40	0.0013398623	0.0027450827	3.02770272e-08	100	100	100	0	0	1	-80	80;
	40	41	0.0013398623	0.0027450827	3.02770272e-08	100	100	100	0	0	1	-80	80;
	41	42	0.0013398623	0.0027450827	3.02770272e-08	100	100	100	0	0	1	-80	80;
	42	43	0.0013398623	0.0027450827	3.02770272e-08	100	100	100	0	0	1	-80	80;
	43	44	0.0013398623	0.0027450827	3.02770272e-08	100	100	100	0	0	1	-80	80;
	44	45	0.0013398623	0.0027450827	3.02770272e-08	100	100	100	0	0	1	-80	80;
	45	46	0.0013398623	0.0027450827	3.02770272e-08	100	100	100	0	0	1	-80	80;
	46	47	0.0013398623	0.0027450827	3.02770272e-08	100	100	100	0	0	1	-80	80;
	47	48	0.0013398623	0.0027450827	3.02770272e-08	100	100	100	0	0	1	-80	80;
	48	49	0.0013398623	0.0027450827	3.02770272e-08	100	100	100	0	0	1	-80	80;
	49	50	0.0013398623	0.0027450827	3.02770272e-08	100	100	100	0	0	1	-80	80;
	50	51	0.0013398623	0.0027450827	3.02770272e-08	100	100	100	0	0	1	-80	80;
	51	52	0.0013398623	0.0027450827	3.02770272e-08	100	100	100	0	0	1	-80	80;
	52	53	0.0013398623	0.0027450827	3.02770272e-08	100	100	100	0	0	1	-80	80;
	53	54	0.0013398623	0.0027450827	3.02770272e-08	100	100	100	0	0	1	-80	80;
	54	55	0.0013398623	0.0027450827	3.02770272e-08	100	100	100	0	0	1	-80	80;
	55	56	0.0013398623	0.0027450827	3.02770272e-08	100	100	100	0	0	1	-80	80;
	56	57	0.0013398623	0.0027450827	3.02770272e-08	100	100	100	0	0	1	-80	80;
	57	58	0.0013398623	0.0027450827	3.02770272e-08	100	100	100	0	0	1	-80	80;
	58	59	0.0013398623	0.0027450827	3.02770272e-08	100	100	100	0	0	1	-80	80;
	59	60	0.0013398623	0.0027450827	3.02770272e-08	100	100	100	0	0	1	-80	80;
];

%%-----  OPF Data  -----%%
%% generator cost data
%	1	startup	shutdown	n	x1	y1	...	xn	yn
%	2	startup	shutdown	n	c(n-1)	...	c0
mpc.gencost = [
	2	0	0	3	1	1	0;
];
     %% storage data
 % hours;
mpc.time_elapsed = 0.0167
%   storage_bus  energy  energy_rating charge_rating  discharge_rating  charge_efficiency  discharge_efficiency  thermal_rating  qmin  qmax  r  x  standby_loss  status
mpc.storage = [
	 5            0.05     0.1          1             1                 0.9                0.9                   100.0        -50.0 70.0  0.1 0.0	0.05         1;
];
